[TITLE]
;;Project Title/Notes

[OPTIONS]
;;Option            	Value
FLOW_UNITS          	CMS
INFILTRATION        	HORTON
FLOW_ROUTING        	DYNWAVE
LINK_OFFSETS        	DEPTH
MIN_SLOPE           	0
ALLOW_PONDING       	NO
SKIP_STEADY_STATE   	NO

START_DATE          	10/31/2022
START_TIME          	00:00:00
REPORT_START_DATE   	10/31/2022
REPORT_START_TIME   	00:00:00
END_DATE            	10/31/2022
END_TIME            	06:00:00
SWEEP_START         	01/01
SWEEP_END           	12/31
DRY_DAYS            	0
REPORT_STEP         	00:00:10
WET_STEP            	00:05:00
DRY_STEP            	01:00:00
ROUTING_STEP        	0:00:01 
RULE_STEP           	00:00:00

INERTIAL_DAMPING    	NONE
NORMAL_FLOW_LIMITED 	BOTH
FORCE_MAIN_EQUATION 	H-W
SURCHARGE_METHOD    	SLOT
VARIABLE_STEP       	0.00
LENGTHENING_STEP    	0
MIN_SURFAREA        	1.167
MAX_TRIALS          	8
HEAD_TOLERANCE      	0.0015
SYS_FLOW_TOL        	5
LAT_FLOW_TOL        	5
MINIMUM_STEP        	0.5
THREADS             	6

[EVAPORATION]
;;Data Source   	Parameters
;;--------------	----------------
CONSTANT        	0.0
DRY_ONLY        	NO

[JUNCTIONS]
;;Name          	Elevation 	MaxDepth  	InitDepth 	SurDepth  	Aponded   
;;--------------	----------	----------	----------	----------	----------
A00             	20.00     	10        	0         	0         	0         
A01             	19.00     	10        	0         	0         	0         
A02             	18.00     	10        	0         	0         	0         
A03             	17.00     	10        	0         	0         	0         
A04             	16.00     	10        	0         	0         	0         
A05             	15.00     	10        	0         	0         	0         
A06             	14.00     	10        	0         	0         	0         
A07             	13.00     	10        	0         	0         	0         
A08             	12.00     	10        	0         	0         	0         
A09             	11.00     	10        	0         	0         	0         
A10             	10.00     	10        	0         	0         	0         
B00             	19.00     	10        	0         	0         	0         
B01             	18.00     	10        	0         	0         	0         
B02             	17.00     	10        	0         	0         	0         
B03             	16.00     	10        	0         	0         	0         
B04             	15.00     	10        	0         	0         	0         
B05             	14.00     	10        	0         	0         	0         
B06             	13.00     	10        	0         	0         	0         
B07             	12.00     	10        	0         	0         	0         
B08             	11.00     	10        	0         	0         	0         
B09             	10.00     	10        	0         	0         	0         
B10             	9.000     	10        	0         	0         	0         
C00             	18.00     	10        	0         	0         	0         
C01             	17.00     	10        	0         	0         	0         
C02             	16.00     	10        	0         	0         	0         
C03             	15.00     	10        	0         	0         	0         
C04             	14.00     	10        	0         	0         	0         
C05             	13.00     	10        	0         	0         	0         
C06             	12.00     	10        	0         	0         	0         
C07             	11.00     	10        	0         	0         	0         
C08             	10.00     	10        	0         	0         	0         
C09             	9.000     	10        	0         	0         	0         
C10             	8.000     	10        	0         	0         	0         
D00             	17.00     	10        	0         	0         	0         
D01             	16.00     	10        	0         	0         	0         
D02             	15.00     	10        	0         	0         	0         
D03             	14.00     	10        	0         	0         	0         
D04             	13.00     	10        	0         	0         	0         
D05             	12.00     	10        	0         	0         	0         
D06             	11.00     	10        	0         	0         	0         
D07             	10.00     	10        	0         	0         	0         
D08             	9.000     	10        	0         	0         	0         
D09             	8.000     	10        	0         	0         	0         
D10             	7.000     	10        	0         	0         	0         
E00             	16.00     	10        	0         	0         	0         
E01             	15.00     	10        	0         	0         	0         
E02             	14.00     	10        	0         	0         	0         
E03             	13.00     	10        	0         	0         	0         
E04             	12.00     	10        	0         	0         	0         
E05             	11.00     	10        	0         	0         	0         
E06             	10.00     	10        	0         	0         	0         
E07             	9.000     	10        	0         	0         	0         
E08             	8.000     	10        	0         	0         	0         
E09             	7.000     	10        	0         	0         	0         
E10             	6.000     	10        	0         	0         	0         
F00             	15.00     	10        	0         	0         	0         
F01             	14.00     	10        	0         	0         	0         
F02             	13.00     	10        	0         	0         	0         
F03             	12.00     	10        	0         	0         	0         
F04             	11.00     	10        	0         	0         	0         
F05             	10.00     	10        	0         	0         	0         
F06             	9.000     	10        	0         	0         	0         
F07             	8.000     	10        	0         	0         	0         
F08             	7.000     	10        	0         	0         	0         
F09             	6.000     	10        	0         	0         	0         
F10             	5.000     	10        	0         	0         	0         
G00             	14.00     	10        	0         	0         	0         
G01             	13.00     	10        	0         	0         	0         
G02             	12.00     	10        	0         	0         	0         
G03             	11.00     	10        	0         	0         	0         
G04             	10.00     	10        	0         	0         	0         
G05             	9.000     	10        	0         	0         	0         
G06             	8.000     	10        	0         	0         	0         
G07             	7.000     	10        	0         	0         	0         
G08             	6.000     	10        	0         	0         	0         
G09             	5.000     	10        	0         	0         	0         
G10             	4.000     	10        	0         	0         	0         
H00             	13.00     	10        	0         	0         	0         
H01             	12.00     	10        	0         	0         	0         
H02             	11.00     	10        	0         	0         	0         
H03             	10.00     	10        	0         	0         	0         
H04             	9.000     	10        	0         	0         	0         
H05             	8.000     	10        	0         	0         	0         
H06             	7.000     	10        	0         	0         	0         
H07             	6.000     	10        	0         	0         	0         
H08             	5.000     	10        	0         	0         	0         
H09             	4.000     	10        	0         	0         	0         
H10             	3.000     	10        	0         	0         	0         
I00             	12.00     	10        	0         	0         	0         
I01             	11.00     	10        	0         	0         	0         
I02             	10.00     	10        	0         	0         	0         
I03             	9.000     	10        	0         	0         	0         
I04             	8.000     	10        	0         	0         	0         
I05             	7.000     	10        	0         	0         	0         
I06             	6.000     	10        	0         	0         	0         
I07             	5.000     	10        	0         	0         	0         
I08             	4.000     	10        	0         	0         	0         
I09             	3.000     	10        	0         	0         	0         
I10             	2.000     	10        	0         	0         	0         
J00             	11.00     	10        	0         	0         	0         
J01             	10.00     	10        	0         	0         	0         
J02             	9.000     	10        	0         	0         	0         
J03             	8.000     	10        	0         	0         	0         
J04             	7.000     	10        	0         	0         	0         
J05             	6.000     	10        	0         	0         	0         
J06             	5.000     	10        	0         	0         	0         
J07             	4.000     	10        	0         	0         	0         
J08             	3.000     	10        	0         	0         	0         
J09             	2.000     	10        	0         	0         	0         
J10             	1.000     	10        	0         	0         	0         
K00             	10.00     	10        	0         	0         	0         
K01             	9.000     	10        	0         	0         	0         
K02             	8.000     	10        	0         	0         	0         
K03             	7.000     	10        	0         	0         	0         
K04             	6.000     	10        	0         	0         	0         
K05             	5.000     	10        	0         	0         	0         
K06             	4.000     	10        	0         	0         	0         
K07             	3.000     	10        	0         	0         	0         
K08             	2.000     	10        	0         	0         	0         
K09             	1.000     	10        	0         	0         	0         
K10             	0.000000  	10        	0         	0         	0         

[OUTFALLS]
;;Name          	Elevation 	Type      	Stage Data      	Gated   	Route To        
;;--------------	----------	----------	----------------	--------	----------------
Outfall         	0         	FREE      	                	NO      	                

[CONDUITS]
;;Name          	From Node       	To Node         	Length    	Roughness 	InOffset  	OutOffset 	InitFlow  	MaxFlow   
;;--------------	----------------	----------------	----------	----------	----------	----------	----------	----------
121             	A00             	A01             	100.00    	0.016     	0         	0         	0         	0         
122             	A01             	A02             	100.00    	0.016     	0         	0         	0         	0         
123             	A02             	A03             	100.00    	0.016     	0         	0         	0         	0         
124             	A03             	A04             	100.00    	0.016     	0         	0         	0         	0         
125             	A04             	A05             	100.00    	0.016     	0         	0         	0         	0         
126             	A05             	A06             	100.00    	0.016     	0         	0         	0         	0         
127             	A06             	A07             	100.00    	0.016     	0         	0         	0         	0         
128             	A07             	A08             	100.00    	0.016     	0         	0         	0         	0         
129             	A08             	A09             	100.00    	0.016     	0         	0         	0         	0         
130             	A09             	A10             	100.00    	0.016     	0         	0         	0         	0         
131             	B00             	B01             	100.00    	0.016     	0         	0         	0         	0         
132             	B01             	B02             	100.00    	0.016     	0         	0         	0         	0         
133             	B02             	B03             	100.00    	0.016     	0         	0         	0         	0         
134             	B03             	B04             	100.00    	0.016     	0         	0         	0         	0         
135             	B04             	B05             	100.00    	0.016     	0         	0         	0         	0         
136             	B05             	B06             	100.00    	0.016     	0         	0         	0         	0         
137             	B06             	B07             	100.00    	0.016     	0         	0         	0         	0         
138             	B07             	B08             	100.00    	0.016     	0         	0         	0         	0         
139             	B08             	B09             	100.00    	0.016     	0         	0         	0         	0         
140             	B09             	B10             	100.00    	0.016     	0         	0         	0         	0         
141             	C00             	C01             	100.00    	0.016     	0         	0         	0         	0         
142             	C01             	C02             	100.00    	0.016     	0         	0         	0         	0         
143             	C02             	C03             	100.00    	0.016     	0         	0         	0         	0         
144             	C03             	C04             	100.00    	0.016     	0         	0         	0         	0         
145             	C04             	C05             	100.00    	0.016     	0         	0         	0         	0         
146             	C05             	C06             	100.00    	0.016     	0         	0         	0         	0         
147             	C06             	C07             	100.00    	0.016     	0         	0         	0         	0         
148             	C07             	C08             	100.00    	0.016     	0         	0         	0         	0         
149             	C08             	C09             	100.00    	0.016     	0         	0         	0         	0         
150             	C09             	C10             	100.00    	0.016     	0         	0         	0         	0         
151             	D00             	D01             	100.00    	0.016     	0         	0         	0         	0         
152             	D01             	D02             	100.00    	0.016     	0         	0         	0         	0         
153             	D02             	D03             	100.00    	0.016     	0         	0         	0         	0         
154             	D03             	D04             	100.00    	0.016     	0         	0         	0         	0         
155             	D04             	D05             	100.00    	0.016     	0         	0         	0         	0         
156             	D05             	D06             	100.00    	0.016     	0         	0         	0         	0         
157             	D06             	D07             	100.00    	0.016     	0         	0         	0         	0         
158             	D07             	D08             	100.00    	0.016     	0         	0         	0         	0         
159             	D08             	D09             	100.00    	0.016     	0         	0         	0         	0         
160             	D09             	D10             	100.00    	0.016     	0         	0         	0         	0         
161             	E00             	E01             	100.00    	0.016     	0         	0         	0         	0         
162             	E01             	E02             	100.00    	0.016     	0         	0         	0         	0         
163             	E02             	E03             	100.00    	0.016     	0         	0         	0         	0         
164             	E03             	E04             	100.00    	0.016     	0         	0         	0         	0         
165             	E04             	E05             	100.00    	0.016     	0         	0         	0         	0         
166             	E05             	E06             	100.00    	0.016     	0         	0         	0         	0         
167             	E06             	E07             	100.00    	0.016     	0         	0         	0         	0         
168             	E07             	E08             	100.00    	0.016     	0         	0         	0         	0         
169             	E08             	E09             	100.00    	0.016     	0         	0         	0         	0         
170             	E09             	E10             	100.00    	0.016     	0         	0         	0         	0         
171             	F00             	F01             	100.00    	0.016     	0         	0         	0         	0         
172             	F01             	F02             	100.00    	0.016     	0         	0         	0         	0         
173             	F02             	F03             	100.00    	0.016     	0         	0         	0         	0         
174             	F03             	F04             	100.00    	0.016     	0         	0         	0         	0         
175             	F04             	F05             	100.00    	0.016     	0         	0         	0         	0         
176             	F05             	F06             	100.00    	0.016     	0         	0         	0         	0         
177             	F06             	F07             	100.00    	0.016     	0         	0         	0         	0         
178             	F07             	F08             	100.00    	0.016     	0         	0         	0         	0         
179             	F08             	F09             	100.00    	0.016     	0         	0         	0         	0         
180             	F09             	F10             	100.00    	0.016     	0         	0         	0         	0         
181             	G00             	G01             	100.00    	0.016     	0         	0         	0         	0         
182             	G01             	G02             	100.00    	0.016     	0         	0         	0         	0         
183             	G02             	G03             	100.00    	0.016     	0         	0         	0         	0         
184             	G03             	G04             	100.00    	0.016     	0         	0         	0         	0         
185             	G04             	G05             	100.00    	0.016     	0         	0         	0         	0         
186             	G05             	G06             	100.00    	0.016     	0         	0         	0         	0         
187             	G06             	G07             	100.00    	0.016     	0         	0         	0         	0         
188             	G07             	G08             	100.00    	0.016     	0         	0         	0         	0         
189             	G08             	G09             	100.00    	0.016     	0         	0         	0         	0         
190             	G09             	G10             	100.00    	0.016     	0         	0         	0         	0         
191             	H00             	H01             	100.00    	0.016     	0         	0         	0         	0         
192             	H01             	H02             	100.00    	0.016     	0         	0         	0         	0         
193             	H02             	H03             	100.00    	0.016     	0         	0         	0         	0         
194             	H03             	H04             	100.00    	0.016     	0         	0         	0         	0         
195             	H04             	H05             	100.00    	0.016     	0         	0         	0         	0         
196             	H05             	H06             	100.00    	0.016     	0         	0         	0         	0         
197             	H06             	H07             	100.00    	0.016     	0         	0         	0         	0         
198             	H07             	H08             	100.00    	0.016     	0         	0         	0         	0         
199             	H08             	H09             	100.00    	0.016     	0         	0         	0         	0         
200             	H09             	H10             	100.00    	0.016     	0         	0         	0         	0         
201             	I00             	I01             	100.00    	0.016     	0         	0         	0         	0         
202             	I01             	I02             	100.00    	0.016     	0         	0         	0         	0         
203             	I02             	I03             	100.00    	0.016     	0         	0         	0         	0         
204             	I03             	I04             	100.00    	0.016     	0         	0         	0         	0         
205             	I04             	I05             	100.00    	0.016     	0         	0         	0         	0         
206             	I05             	I06             	100.00    	0.016     	0         	0         	0         	0         
207             	I06             	I07             	100.00    	0.016     	0         	0         	0         	0         
208             	I07             	I08             	100.00    	0.016     	0         	0         	0         	0         
209             	I08             	I09             	100.00    	0.016     	0         	0         	0         	0         
210             	I09             	I10             	100.00    	0.016     	0         	0         	0         	0         
211             	J00             	J01             	100.00    	0.016     	0         	0         	0         	0         
212             	J01             	J02             	100.00    	0.016     	0         	0         	0         	0         
213             	J02             	J03             	100.00    	0.016     	0         	0         	0         	0         
214             	J03             	J04             	100.00    	0.016     	0         	0         	0         	0         
215             	J04             	J05             	100.00    	0.016     	0         	0         	0         	0         
216             	J05             	J06             	100.00    	0.016     	0         	0         	0         	0         
217             	J06             	J07             	100.00    	0.016     	0         	0         	0         	0         
218             	J07             	J08             	100.00    	0.016     	0         	0         	0         	0         
219             	J08             	J09             	100.00    	0.016     	0         	0         	0         	0         
220             	J09             	J10             	100.00    	0.016     	0         	0         	0         	0         
221             	K00             	K01             	100.00    	0.016     	0         	0         	0         	0         
222             	K01             	K02             	100.00    	0.016     	0         	0         	0         	0         
223             	K02             	K03             	100.00    	0.016     	0         	0         	0         	0         
224             	K03             	K04             	100.00    	0.016     	0         	0         	0         	0         
225             	K04             	K05             	100.00    	0.016     	0         	0         	0         	0         
226             	K05             	K06             	100.00    	0.016     	0         	0         	0         	0         
227             	K06             	K07             	100.00    	0.016     	0         	0         	0         	0         
228             	K07             	K08             	100.00    	0.016     	0         	0         	0         	0         
229             	K08             	K09             	100.00    	0.016     	0         	0         	0         	0         
230             	K09             	K10             	100.00    	0.016     	0         	0         	0         	0         
231             	A10             	B10             	100.00    	0.016     	0         	0         	0         	0         
232             	B10             	C10             	100.00    	0.016     	0         	0         	0         	0         
233             	C10             	D10             	100.00    	0.016     	0         	0         	0         	0         
234             	D10             	E10             	100.00    	0.016     	0         	0         	0         	0         
235             	E10             	F10             	100.00    	0.016     	0         	0         	0         	0         
236             	F10             	G10             	100.00    	0.016     	0         	0         	0         	0         
237             	G10             	H10             	100.00    	0.016     	0         	0         	0         	0         
238             	H10             	I10             	100.00    	0.016     	0         	0         	0         	0         
239             	I10             	J10             	100.00    	0.016     	0         	0         	0         	0         
240             	J10             	K10             	100.00    	0.016     	0         	0         	0         	0         
241             	K10             	Outfall         	100.00    	0.016     	0         	0         	0         	0         
1               	A00             	B00             	100.00    	0.016     	0         	0         	0         	0         
2               	B00             	C00             	100.00    	0.016     	0         	0         	0         	0         
3               	C00             	D00             	100.00    	0.016     	0         	0         	0         	0         
4               	D00             	E00             	100.00    	0.016     	0         	0         	0         	0         
5               	E00             	F00             	100.00    	0.016     	0         	0         	0         	0         
6               	F00             	G00             	100.00    	0.016     	0         	0         	0         	0         
7               	G00             	H00             	100.00    	0.016     	0         	0         	0         	0         
8               	H00             	I00             	100.00    	0.016     	0         	0         	0         	0         
9               	I00             	J00             	100.00    	0.016     	0         	0         	0         	0         
10              	J00             	K00             	100.00    	0.016     	0         	0         	0         	0         
11              	A01             	B01             	100.00    	0.016     	0         	0         	0         	0         
12              	B01             	C01             	100.00    	0.016     	0         	0         	0         	0         
13              	C01             	D01             	100.00    	0.016     	0         	0         	0         	0         
14              	D01             	E01             	100.00    	0.016     	0         	0         	0         	0         
15              	E01             	F01             	100.00    	0.016     	0         	0         	0         	0         
16              	F01             	G01             	100.00    	0.016     	0         	0         	0         	0         
17              	G01             	H01             	100.00    	0.016     	0         	0         	0         	0         
18              	H01             	I01             	100.00    	0.016     	0         	0         	0         	0         
19              	I01             	J01             	100.00    	0.016     	0         	0         	0         	0         
20              	J01             	K01             	100.00    	0.016     	0         	0         	0         	0         
21              	A02             	B02             	100.00    	0.016     	0         	0         	0         	0         
22              	B02             	C02             	100.00    	0.016     	0         	0         	0         	0         
23              	C02             	D02             	100.00    	0.016     	0         	0         	0         	0         
24              	D02             	E02             	100.00    	0.016     	0         	0         	0         	0         
25              	E02             	F02             	100.00    	0.016     	0         	0         	0         	0         
26              	F02             	G02             	100.00    	0.016     	0         	0         	0         	0         
27              	G02             	H02             	100.00    	0.016     	0         	0         	0         	0         
28              	H02             	I02             	100.00    	0.016     	0         	0         	0         	0         
29              	I02             	J02             	100.00    	0.016     	0         	0         	0         	0         
30              	J02             	K02             	100.00    	0.016     	0         	0         	0         	0         
31              	A03             	B03             	100.00    	0.016     	0         	0         	0         	0         
32              	B03             	C03             	100.00    	0.016     	0         	0         	0         	0         
33              	C03             	D03             	100.00    	0.016     	0         	0         	0         	0         
34              	D03             	E03             	100.00    	0.016     	0         	0         	0         	0         
35              	E03             	F03             	100.00    	0.016     	0         	0         	0         	0         
36              	F03             	G03             	100.00    	0.016     	0         	0         	0         	0         
37              	G03             	H03             	100.00    	0.016     	0         	0         	0         	0         
38              	H03             	I03             	100.00    	0.016     	0         	0         	0         	0         
39              	I03             	J03             	100.00    	0.016     	0         	0         	0         	0         
40              	J03             	K03             	100.00    	0.016     	0         	0         	0         	0         
41              	A04             	B04             	100.00    	0.016     	0         	0         	0         	0         
42              	B04             	C04             	100.00    	0.016     	0         	0         	0         	0         