[TITLE]
;;Project Title/Notes

[OPTIONS]
;;Option            	Value
FLOW_UNITS          	CMS
INFILTRATION        	HORTON
FLOW_ROUTING        	DYNWAVE
LINK_OFFSETS        	DEPTH
MIN_SLOPE           	0
ALLOW_PONDING       	NO
SKIP_STEADY_STATE   	NO

START_DATE          	10/31/2022
START_TIME          	00:00:00
REPORT_START_DATE   	10/31/2022
REPORT_START_TIME   	00:00:00
END_DATE            	10/31/2022
END_TIME            	06:00:00
SWEEP_START         	01/01
SWEEP_END           	12/31
DRY_DAYS            	0
REPORT_STEP         	00:00:10
WET_STEP            	00:05:00
DRY_STEP            	01:00:00
ROUTING_STEP        	0:00:01 
RULE_STEP           	00:00:00

INERTIAL_DAMPING    	NONE
NORMAL_FLOW_LIMITED 	BOTH
FORCE_MAIN_EQUATION 	H-W
SURCHARGE_METHOD    	SLOT
VARIABLE_STEP       	0.00
LENGTHENING_STEP    	0
MIN_SURFAREA        	1.167
MAX_TRIALS          	8
HEAD_TOLERANCE      	0.0015
SYS_FLOW_TOL        	5
LAT_FLOW_TOL        	5
MINIMUM_STEP        	0.5
THREADS             	6

[EVAPORATION]
;;Data Source   	Parameters
;;--------------	----------------
CONSTANT        	0.0
DRY_ONLY        	NO

[JUNCTIONS]
;;Name          	Elevation 	MaxDepth  	InitDepth 	SurDepth  	Aponded   
;;--------------	----------	----------	----------	----------	----------
A00             	1         	10        	0         	0         	0         
A01             	0.95      	10        	0         	0         	0         
A02             	0.9       	10        	0         	0         	0         
A03             	0.85      	10        	0         	0         	0         
A04             	0.8       	10        	0         	0         	0         
A05             	0.75      	10        	0         	0         	0         
A06             	0.7       	10        	0         	0         	0         
A07             	0.65      	10        	0         	0         	0         
A08             	0.6       	10        	0         	0         	0         
A09             	0.55      	10        	0         	0         	0         
A10             	0.5       	10        	0         	0         	0         
B00             	0.95      	10        	0         	0         	0         
B01             	0.9       	10        	0         	0         	0         
B02             	0.85      	10        	0         	0         	0         
B03             	0.8       	10        	0         	0         	0         
B04             	0.75      	10        	0         	0         	0         
B05             	0.7       	10        	0         	0         	0         
B06             	0.65      	10        	0         	0         	0         
B07             	0.6       	10        	0         	0         	0         
B08             	0.55      	10        	0         	0         	0         
B09             	0.5       	10        	0         	0         	0         
B10             	0.45      	10        	0         	0         	0         
C00             	0.9       	10        	0         	0         	0         
C01             	0.85      	10        	0         	0         	0         
C02             	0.8       	10        	0         	0         	0         
C03             	0.75     	10        	0         	0         	0         
C04             	0.7       	10        	0         	0         	0         
C05             	0.65      	10        	0         	0         	0         
C06             	0.6       	10        	0         	0         	0         
C07             	0.55      	10        	0         	0         	0         
C08             	0.5       	10        	0         	0         	0         
C09             	0.45      	10        	0         	0         	0         
C10             	0.4       	10        	0         	0         	0         
D00             	0.85      	10        	0         	0         	0         
D01             	0.8       	10        	0         	0         	0         
D02             	0.75      	10        	0         	0         	0         
D03             	0.7       	10        	0         	0         	0         
D04             	0.65      	10        	0         	0         	0         
D05             	0.6       	10        	0         	0         	0         
D06             	0.55      	10        	0         	0         	0         
D07             	0.5       	10        	0         	0         	0         
D08             	0.45      	10        	0         	0         	0         
D09             	0.4       	10        	0         	0         	0         
D10             	0.35      	10        	0         	0         	0         
E00             	0.8       	10        	0         	0         	0         
E01             	0.75      	10        	0         	0         	0         
E02             	0.7       	10        	0         	0         	0         
E03             	0.65      	10        	0         	0         	0         
E04             	0.6       	10        	0         	0         	0         
E05             	0.55      	10        	0         	0         	0         
E06             	0.5       	10        	0         	0         	0         
E07             	0.45      	10        	0         	0         	0         
E08             	0.4       	10        	0         	0         	0         
E09             	0.35      	10        	0         	0         	0         
E10             	0.3       	10        	0         	0         	0         
F00             	0.75      	10        	0         	0         	0         
F01             	0.7       	10        	0         	0         	0         
F02             	0.65      	10        	0         	0         	0         
F03             	0.6       	10        	0         	0         	0         
F04             	0.55      	10        	0         	0         	0         
F05             	0.5       	10        	0         	0         	0         
F06             	0.45      	10        	0         	0         	0         
F07             	0.4       	10        	0         	0         	0         
F08             	0.35      	10        	0         	0         	0         
F09             	0.3       	10        	0         	0         	0         
F10             	0.25      	10        	0         	0         	0         
G00             	0.7       	10        	0         	0         	0         
G01             	0.65      	10        	0         	0         	0         
G02             	0.6       	10        	0         	0         	0         
G03             	0.55      	10        	0         	0         	0         
G04             	0.5       	10        	0         	0         	0         
G05             	0.45      	10        	0         	0         	0         
G06             	0.4       	10        	0         	0         	0         
G07             	0.35      	10        	0         	0         	0         
G08             	0.3       	10        	0         	0         	0         
G09             	0.25      	10        	0         	0         	0         
G10             	0.2       	10        	0         	0         	0         
H00             	0.65      	10        	0         	0         	0         
H01             	0.6       	10        	0         	0         	0         
H02             	0.55      	10        	0         	0         	0         
H03             	0.5       	10        	0         	0         	0         
H04             	0.45      	10        	0         	0         	0         
H05             	0.4       	10        	0         	0         	0         
H06             	0.35      	10        	0         	0         	0         
H07             	0.3       	10        	0         	0         	0         
H08             	0.25      	10        	0         	0         	0         
H09             	0.2       	10        	0         	0         	0         
H10             	0.15      	10        	0         	0         	0         
I00             	0.6       	10        	0         	0         	0         
I01             	0.55      	10        	0         	0         	0         
I02             	0.5       	10        	0         	0         	0         
I03             	0.45      	10        	0         	0         	0         
I04             	0.4       	10        	0         	0         	0         
I05             	0.35      	10        	0         	0         	0         
I06             	0.3       	10        	0         	0         	0         
I07             	0.25      	10        	0         	0         	0         
I08             	0.2       	10        	0         	0         	0         
I09             	0.15      	10        	0         	0         	0         
I10             	0.1       	10        	0         	0         	0         
J00             	0.55      	10        	0         	0         	0         
J01             	0.5       	10        	0         	0         	0         
J02             	0.45      	10        	0         	0         	0         
J03             	0.4       	10        	0         	0         	0         
J04             	0.35      	10        	0         	0         	0         
J05             	0.3       	10        	0         	0         	0         
J06             	0.25      	10        	0         	0         	0         
J07             	0.2       	10        	0         	0         	0         
J08             	0.15      	10        	0         	0         	0         
J09             	0.1       	10        	0         	0         	0         
J10             	0.05      	10        	0         	0         	0         
K00             	0.5       	10        	0         	0         	0         
K01             	0.45      	10        	0         	0         	0         
K02             	0.4       	10        	0         	0         	0         
K03             	0.35      	10        	0         	0         	0         
K04             	0.3       	10        	0         	0         	0         
K05             	0.25      	10        	0         	0         	0         
K06             	0.2       	10        	0         	0         	0         
K07             	0.15      	10        	0         	0         	0         
K08             	0.1       	10        	0         	0         	0         
K09             	0.05      	10        	0         	0         	0         
K10             	0         	10        	0         	0         	0         

[OUTFALLS]
;;Name          	Elevation 	Type      	Stage Data      	Gated   	Route To        
;;--------------	----------	----------	----------------	--------	----------------
Outfall         	0         	FREE      	                	NO      	                

[CONDUITS]
;;Name          	From Node       	To Node         	Length    	Roughness 	InOffset  	OutOffset 	InitFlow  	MaxFlow   
;;--------------	----------------	----------------	----------	----------	----------	----------	----------	----------
121             	A00             	A01             	100.00    	0.016     	0         	0         	0         	0         
122             	A01             	A02             	100.00    	0.016     	0         	0         	0         	0         
123             	A02             	A03             	100.00    	0.016     	0         	0         	0         	0         
124             	A03             	A04             	100.00    	0.016     	0         	0         	0         	0         
125             	A04             	A05             	100.00    	0.016     	0         	0         	0         	0         
126             	A05             	A06             	100.00    	0.016     	0         	0         	0         	0         
127             	A06             	A07             	100.00    	0.016     	0         	0         	0         	0         
128             	A07             	A08             	100.00    	0.016     	0         	0         	0         	0         
129             	A08             	A09             	100.00    	0.016     	0         	0         	0         	0         
130             	A09             	A10             	100.00    	0.016     	0         	0         	0         	0         
131             	B00             	B01             	100.00    	0.016     	0         	0         	0         	0         
132             	B01             	B02             	100.00    	0.016     	0         	0         	0         	0         
133             	B02             	B03             	100.00    	0.016     	0         	0         	0         	0         
134             	B03             	B04             	100.00    	0.016     	0         	0         	0         	0         
135             	B04             	B05             	100.00    	0.016     	0         	0         	0         	0         
136             	B05             	B06             	100.00    	0.016     	0         	0         	0         	0         
137             	B06             	B07             	100.00    	0.016     	0         	0         	0         	0         
138             	B07             	B08             	100.00    	0.016     	0         	0         	0         	0         
139             	B08             	B09             	100.00    	0.016     	0         	0         	0         	0         
140             	B09             	B10             	100.00    	0.016     	0         	0         	0         	0         
141             	C00             	C01             	100.00    	0.016     	0         	0         	0         	0         
142             	C01             	C02             	100.00    	0.016     	0         	0         	0         	0         
143             	C02             	C03             	100.00    	0.016     	0         	0         	0         	0         
144             	C03             	C04             	100.00    	0.016     	0         	0         	0         	0         
145             	C04             	C05             	100.00    	0.016     	0         	0         	0         	0         
146             	C05             	C06             	100.00    	0.016     	0         	0         	0         	0         
147             	C06             	C07             	100.00    	0.016     	0         	0         	0         	0         
148             	C07             	C08             	100.00    	0.016     	0         	0         	0         	0         
149             	C08             	C09             	100.00    	0.016     	0         	0         	0         	0         
150             	C09             	C10             	100.00    	0.016     	0         	0         	0         	0         
151             	D00             	D01             	100.00    	0.016     	0         	0         	0         	0         
152             	D01             	D02             	100.00    	0.016     	0         	0         	0         	0         
153             	D02             	D03             	100.00    	0.016     	0         	0         	0         	0         
154             	D03             	D04             	100.00    	0.016     	0         	0         	0         	0         
156             	D05             	D06             	100.00    	0.016     	0         	0         	0         	0         
157             	D06             	D07             	100.00    	0.016     	0         	0         	0         	0         
158             	D07             	D08             	100.00    	0.016     	0         	0         	0         	0         
159             	D08             	D09             	100.00    	0.016     	0         	0         	0         	0         
160             	D09             	D10             	100.00    	0.016     	0         	0         	0         	0         
161             	E00             	E01             	100.00    	0.016     	0         	0         	0         	0         
162             	E01             	E02             	100.00    	0.016     	0         	0         	0         	0         
163             	E02             	E03             	100.00    	0.016     	0         	0         	0         	0         
164             	E03             	E04             	100.00    	0.016     	0         	0         	0         	0         
165             	E04             	E05             	100.00    	0.016     	0         	0         	0         	0         
166             	E05             	E06             	100.00    	0.016     	0         	0         	0         	0         
167             	E06             	E07             	100.00    	0.016     	0         	0         	0         	0         
168             	E07             	E08             	100.00    	0.016     	0         	0         	0         	0         
169             	E08             	E09             	100.00    	0.016     	0         	0         	0         	0         
170             	E09             	E10             	100.00    	0.016     	0         	0         	0         	0         
171             	F00             	F01             	100.00    	0.016     	0         	0         	0         	0         
172             	F01             	F02             	100.00    	0.016     	0         	0         	0         	0         
173             	F02             	F03             	100.00    	0.016     	0         	0         	0         	0         
174             	F03             	F04             	100.00    	0.016     	0         	0         	0         	0         
175             	F04             	F05             	100.00    	0.016     	0         	0         	0         	0         
176             	F05             	F06             	100.00    	0.016     	0         	0         	0         	0         
177             	F06             	F07             	100.00    	0.016     	0         	0         	0         	0         
178             	F07             	F08             	100.00    	0.016     	0         	0         	0         	0         
179             	F08             	F09             	100.00    	0.016     	0         	0         	0         	0         
180             	F09             	F10             	100.00    	0.016     	0         	0         	0         	0         
181             	G00             	G01             	100.00    	0.016     	0         	0         	0         	0         
182             	G01             	G02             	100.00    	0.016     	0         	0         	0         	0         
183             	G02             	G03             	100.00    	0.016     	0         	0         	0         	0         
184             	G03             	G04             	100.00    	0.016     	0         	0         	0         	0         
185             	G04             	G05             	100.00    	0.016     	0         	0         	0         	0         
186             	G05             	G06             	100.00    	0.016     	0         	0         	0         	0         
187             	G06             	G07             	100.00    	0.016     	0         	0         	0         	0         
188             	G07             	G08             	100.00    	0.016     	0         	0         	0         	0         
189             	G08             	G09             	100.00    	0.016     	0         	0         	0         	0         
190             	G09             	G10             	100.00    	0.016     	0         	0         	0         	0         
191             	H00             	H01             	100.00    	0.016     	0         	0         	0         	0         
192             	H01             	H02             	100.00    	0.016     	0         	0         	0         	0         
193             	H02             	H03             	100.00    	0.016     	0         	0         	0         	0         
194             	H03             	H04             	100.00    	0.016     	0         	0         	0         	0         
195             	H04             	H05             	100.00    	0.016     	0         	0         	0         	0         
196             	H05             	H06             	100.00    	0.016     	0         	0         	0         	0         
197             	H06             	H07             	100.00    	0.016     	0         	0         	0         	0         
198             	H07             	H08             	100.00    	0.016     	0         	0         	0         	0         
199             	H08             	H09             	100.00    	0.016     	0         	0         	0         	0         
200             	H09             	H10             	100.00    	0.016     	0         	0         	0         	0         
201             	I00             	I01             	100.00    	0.016     	0         	0         	0         	0         
202             	I01             	I02             	100.00    	0.016     	0         	0         	0         	0         
203             	I02             	I03             	100.00    	0.016     	0         	0         	0         	0         
204             	I03             	I04             	100.00    	0.016     	0         	0         	0         	0         
205             	I04             	I05             	100.00    	0.016     	0         	0         	0         	0         
206             	I05             	I06             	100.00    	0.016     	0         	0         	0         	0         
207             	I06             	I07             	100.00    	0.016     	0         	0         	0         	0         
208             	I07             	I08             	100.00    	0.016     	0         	0         	0         	0         
209             	I08             	I09             	100.00    	0.016     	0         	0         	0         	0         
210             	I09             	I10             	100.00    	0.016     	0         	0         	0         	0         
211             	J00             	J01             	100.00    	0.016     	0         	0         	0         	0         
212             	J01             	J02             	100.00    	0.016     	0         	0         	0         	0         
213             	J02             	J03             	100.00    	0.016     	0         	0         	0         	0         
214             	J03             	J04             	100.00    	0.016     	0         	0         	0         	0         
215             	J04             	J05             	100.00    	0.016     	0         	0         	0         	0         
216             	J05             	J06             	100.00    	0.016     	0         	0         	0         	0         
217             	J06             	J07             	100.00    	0.016     	0         	0         	0         	0         
218             	J07             	J08             	100.00    	0.016     	0         	0         	0         	0         
219             	J08             	J09             	100.00    	0.016     	0         	0         	0         	0         
220             	J09             	J10             	100.00    	0.016     	0         	0         	0         	0         
221             	K00             	K01             	100.00    	0.016     	0         	0         	0         	0         
222             	K01             	K02             	100.00    	0.016     	0         	0         	0         	0         
223             	K02             	K03             	100.00    	0.016     	0         	0         	0         	0         
224             	K03             	K04             	100.00    	0.016     	0         	0         	0         	0         
225             	K04             	K05             	100.00    	0.016     	0         	0         	0         	0         
226             	K05             	K06             	100.00    	0.016     	0         	0         	0         	0         
227             	K06             	K07             	100.00    	0.016     	0         	0         	0         	0         
228             	K07             	K08             	100.00    	0.016     	0         	0         	0         	0         
229             	K08             	K09             	100.00    	0.016     	0         	0         	0         	0         
230             	K09             	K10             	100.00    	0.016     	0         	0         	0         	0         
231             	A10             	B10             	100.00    	0.016     	0         	0         	0         	0         
232             	B10             	C10             	100.00    	0.016     	0         	0         	0         	0         
233             	C10             	D10             	100.00    	0.016     	0         	0         	0         	0         
234             	D10             	E10             	100.00    	0.016     	0         	0         	0         	0         
235             	E10             	F10             	100.00    	0.016     	0         	0         	0         	0         
236             	F10             	G10             	100.00    	0.016     	0         	0         	0         	0         
237             	G10             	H10             	100.00    	0.016     	0         	0         	0         	0         
238             	H10             	I10             	100.00    	0.016     	0         	0         	0         	0         
239             	I10             	J10             	100.00    	0.016     	0         	0         	0         	0         
240             	J10             	K10             	100.00    	0.016     	0         	0         	0         	0         
341             	K10             	Outfall         	100.00    	0.016     	0         	0         	0         	0         
342             	D04             	D05             	100.00    	0.016     	0         	0         	0         	0         

[XSECTIONS]
;;Link          	Shape       	Geom1           	Geom2     	Geom3     	Geom4     	Barrels   	Culvert   
;;--------------	------------	----------------	----------	----------	----------	----------	----------
121             	CIRCULAR    	1               	0         	0         	0         	1         	          
122             	CIRCULAR    	1               	0         	0         	0         	1         	          
123             	CIRCULAR    	1               	0         	0         	0         	1         	          
124             	CIRCULAR    	1               	0         	0         	0         	1         	          
125             	CIRCULAR    	1               	0         	0         	0         	1         	          
126             	CIRCULAR    	1               	0         	0         	0         	1         	          
127             	CIRCULAR    	1               	0         	0         	0         	1         	          
128             	CIRCULAR    	1               	0         	0         	0         	1         	          
129             	CIRCULAR    	1               	0         	0         	0         	1         	          
130             	CIRCULAR    	1               	0         	0         	0         	1         	          
131             	CIRCULAR    	1               	0         	0         	0         	1         	          
132             	CIRCULAR    	1               	0         	0         	0         	1         	          
133             	CIRCULAR    	1               	0         	0         	0         	1         	          
134             	CIRCULAR    	1               	0         	0         	0         	1         	          
135             	CIRCULAR    	1               	0         	0         	0         	1         	          
136             	CIRCULAR    	1               	0         	0         	0         	1         	          
137             	CIRCULAR    	1               	0         	0         	0         	1         	          
138             	CIRCULAR    	1               	0         	0         	0         	1         	          
139             	CIRCULAR    	1               	0         	0         	0         	1         	          
140             	CIRCULAR    	1               	0         	0         	0         	1         	          
141             	CIRCULAR    	1               	0         	0         	0         	1         	          
142             	CIRCULAR    	1               	0         	0         	0         	1         	          
143             	CIRCULAR    	1               	0         	0         	0         	1         	          
144             	CIRCULAR    	1               	0         	0         	0         	1         	          
145             	CIRCULAR    	1               	0         	0         	0         	1         	          
146             	CIRCULAR    	1               	0         	0         	0         	1         	          
147             	CIRCULAR    	1               	0         	0         	0         	1         	          
148             	CIRCULAR    	1               	0         	0         	0         	1         	          
149             	CIRCULAR    	1               	0         	0         	0         	1         	          
150             	CIRCULAR    	1               	0         	0         	0         	1         	          
151             	CIRCULAR    	1               	0         	0         	0         	1         	          
152             	CIRCULAR    	1               	0         	0         	0         	1         	          
153             	CIRCULAR    	1               	0         	0         	0         	1         	          
154             	CIRCULAR    	1               	0         	0         	0         	1         	          
156             	CIRCULAR    	1               	0         	0         	0         	1         	          
157             	CIRCULAR    	1               	0         	0         	0         	1         	          
158             	CIRCULAR    	1               	0         	0         	0         	1         	          
159             	CIRCULAR    	1               	0         	0         	0         	1         	          
160             	CIRCULAR    	1               	0         	0         	0         	1         	          
161             	CIRCULAR    	1               	0         	0         	0         	1         	          
162             	CIRCULAR    	1               	0         	0         	0         	1         	          
163             	CIRCULAR    	1               	0         	0         	0         	1         	          
164             	CIRCULAR    	1               	0         	0         	0         	1         	          
165             	CIRCULAR    	1               	0         	0         	0         	1         	          
166             	CIRCULAR    	1               	0         	0         	0         	1         	          
167             	CIRCULAR    	1               	0         	0         	0         	1         	          
168             	CIRCULAR    	1               	0         	0         	0         	1         	          